<?xml version="1.0" encoding="UTF-8"?>

<!-- generated on 09/26/19 08:50:35 by Eclipse SUMO duarouter Version 1.0.1
<configuration xmlns:xsi="http://www.w3.org/2001/XMLSchema-instance" xsi:noNamespaceSchemaLocation="http://sumo.dlr.de/xsd/duarouterConfiguration.xsd">

    <input>
        <net-file value="gnet.net.xml"/>
        <route-files value="gflow.flow.xml"/>
    </input>

    <output>
        <output-file value="grou.rou.xml"/>
        <alternatives-output value="grou.rou.alt.xml"/>
    </output>

</configuration>
-->

<routes xmlns:xsi="http://www.w3.org/2001/XMLSchema-instance" xsi:noNamespaceSchemaLocation="http://sumo.dlr.de/xsd/routes_file.xsd">
    <vehicle id="flow1.0" depart="0.00">
        <route edges="10 8 5"/>
    </vehicle>
    <vehicle id="flow10.0" depart="0.00">
        <route edges="4 7 9"/>
    </vehicle>
    <vehicle id="flow2.0" depart="0.00">
        <route edges="15 6 7 9"/>
    </vehicle>
    <vehicle id="flow3.0" depart="0.00">
        <route edges="10 8 2"/>
    </vehicle>
    <vehicle id="flow4.0" depart="0.00">
        <route edges="15 6 3"/>
    </vehicle>
    <vehicle id="flow5.0" depart="0.00">
        <route edges="1 3"/>
    </vehicle>
    <vehicle id="flow6.0" depart="0.00">
        <route edges="1 5"/>
    </vehicle>
    <vehicle id="flow7.0" depart="0.00">
        <route edges="1 7 9"/>
    </vehicle>
    <vehicle id="flow8.0" depart="0.00">
        <route edges="4 2"/>
    </vehicle>
    <vehicle id="flow9.0" depart="0.00">
        <route edges="4 5"/>
    </vehicle>
    <vehicle id="flow1.1" depart="2.94">
        <route edges="10 8 5"/>
    </vehicle>
    <vehicle id="flow2.1" depart="2.94">
        <route edges="15 6 7 9"/>
    </vehicle>
    <vehicle id="flow1.2" depart="5.88">
        <route edges="10 8 5"/>
    </vehicle>
    <vehicle id="flow2.2" depart="5.88">
        <route edges="15 6 7 9"/>
    </vehicle>
    <vehicle id="flow1.3" depart="8.81">
        <route edges="10 8 5"/>
    </vehicle>
    <vehicle id="flow2.3" depart="8.81">
        <route edges="15 6 7 9"/>
    </vehicle>
    <vehicle id="flow1.4" depart="11.75">
        <route edges="10 8 5"/>
    </vehicle>
    <vehicle id="flow2.4" depart="11.75">
        <route edges="15 6 7 9"/>
    </vehicle>
    <vehicle id="flow8.1" depart="11.88">
        <route edges="4 2"/>
    </vehicle>
    <vehicle id="flow5.1" depart="11.92">
        <route edges="1 3"/>
    </vehicle>
    <vehicle id="flow1.5" depart="14.69">
        <route edges="10 8 5"/>
    </vehicle>
    <vehicle id="flow2.5" depart="14.69">
        <route edges="15 6 7 9"/>
    </vehicle>
    <vehicle id="flow1.6" depart="17.63">
        <route edges="10 8 5"/>
    </vehicle>
    <vehicle id="flow2.6" depart="17.63">
        <route edges="15 6 7 9"/>
    </vehicle>
    <vehicle id="flow1.7" depart="20.57">
        <route edges="10 8 5"/>
    </vehicle>
    <vehicle id="flow2.7" depart="20.57">
        <route edges="15 6 7 9"/>
    </vehicle>
    <vehicle id="flow1.8" depart="23.50">
        <route edges="10 8 5"/>
    </vehicle>
    <vehicle id="flow2.8" depart="23.50">
        <route edges="15 6 7 9"/>
    </vehicle>
    <vehicle id="flow8.2" depart="23.76">
        <route edges="4 2"/>
    </vehicle>
    <vehicle id="flow5.2" depart="23.84">
        <route edges="1 3"/>
    </vehicle>
    <vehicle id="flow1.9" depart="26.44">
        <route edges="10 8 5"/>
    </vehicle>
    <vehicle id="flow2.9" depart="26.44">
        <route edges="15 6 7 9"/>
    </vehicle>
    <vehicle id="flow4.1" depart="28.13">
        <route edges="15 6 3"/>
    </vehicle>
    <vehicle id="flow3.1" depart="28.35">
        <route edges="10 8 2"/>
    </vehicle>
    <vehicle id="flow1.10" depart="29.38">
        <route edges="10 8 5"/>
    </vehicle>
    <vehicle id="flow2.10" depart="29.38">
        <route edges="15 6 7 9"/>
    </vehicle>
    <vehicle id="flow1.11" depart="32.32">
        <route edges="10 8 5"/>
    </vehicle>
    <vehicle id="flow2.11" depart="32.32">
        <route edges="15 6 7 9"/>
    </vehicle>
    <vehicle id="flow1.12" depart="35.26">
        <route edges="10 8 5"/>
    </vehicle>
    <vehicle id="flow2.12" depart="35.26">
        <route edges="15 6 7 9"/>
    </vehicle>
    <vehicle id="flow8.3" depart="35.64">
        <route edges="4 2"/>
    </vehicle>
    <vehicle id="flow5.3" depart="35.76">
        <route edges="1 3"/>
    </vehicle>
    <vehicle id="flow1.13" depart="38.19">
        <route edges="10 8 5"/>
    </vehicle>
    <vehicle id="flow2.13" depart="38.19">
        <route edges="15 6 7 9"/>
    </vehicle>
    <vehicle id="flow1.14" depart="41.13">
        <route edges="10 8 5"/>
    </vehicle>
    <vehicle id="flow2.14" depart="41.13">
        <route edges="15 6 7 9"/>
    </vehicle>
    <vehicle id="flow1.15" depart="44.07">
        <route edges="10 8 5"/>
    </vehicle>
    <vehicle id="flow2.15" depart="44.07">
        <route edges="15 6 7 9"/>
    </vehicle>
    <vehicle id="flow1.16" depart="47.01">
        <route edges="10 8 5"/>
    </vehicle>
    <vehicle id="flow2.16" depart="47.01">
        <route edges="15 6 7 9"/>
    </vehicle>
    <vehicle id="flow8.4" depart="47.52">
        <route edges="4 2"/>
    </vehicle>
    <vehicle id="flow5.4" depart="47.68">
        <route edges="1 3"/>
    </vehicle>
    <vehicle id="flow1.17" depart="49.95">
        <route edges="10 8 5"/>
    </vehicle>
    <vehicle id="flow2.17" depart="49.95">
        <route edges="15 6 7 9"/>
    </vehicle>
    <vehicle id="flow1.18" depart="52.88">
        <route edges="10 8 5"/>
    </vehicle>
    <vehicle id="flow2.18" depart="52.88">
        <route edges="15 6 7 9"/>
    </vehicle>
    <vehicle id="flow1.19" depart="55.82">
        <route edges="10 8 5"/>
    </vehicle>
    <vehicle id="flow2.19" depart="55.82">
        <route edges="15 6 7 9"/>
    </vehicle>
    <vehicle id="flow4.2" depart="56.25">
        <route edges="15 6 3"/>
    </vehicle>
    <vehicle id="flow3.2" depart="56.69">
        <route edges="10 8 2"/>
    </vehicle>
    <vehicle id="flow1.20" depart="58.76">
        <route edges="10 8 5"/>
    </vehicle>
    <vehicle id="flow2.20" depart="58.76">
        <route edges="15 6 7 9"/>
    </vehicle>
    <vehicle id="flow8.5" depart="59.41">
        <route edges="4 2"/>
    </vehicle>
    <vehicle id="flow5.5" depart="59.60">
        <route edges="1 3"/>
    </vehicle>
    <vehicle id="flow1.21" depart="61.70">
        <route edges="10 8 5"/>
    </vehicle>
    <vehicle id="flow2.21" depart="61.70">
        <route edges="15 6 7 9"/>
    </vehicle>
    <vehicle id="flow1.22" depart="64.64">
        <route edges="10 8 5"/>
    </vehicle>
    <vehicle id="flow2.22" depart="64.64">
        <route edges="15 6 7 9"/>
    </vehicle>
    <vehicle id="flow1.23" depart="67.57">
        <route edges="10 8 5"/>
    </vehicle>
    <vehicle id="flow2.23" depart="67.57">
        <route edges="15 6 7 9"/>
    </vehicle>
    <vehicle id="flow1.24" depart="70.51">
        <route edges="10 8 5"/>
    </vehicle>
    <vehicle id="flow2.24" depart="70.51">
        <route edges="15 6 7 9"/>
    </vehicle>
    <vehicle id="flow8.6" depart="71.29">
        <route edges="4 2"/>
    </vehicle>
    <vehicle id="flow5.6" depart="71.52">
        <route edges="1 3"/>
    </vehicle>
    <vehicle id="flow1.25" depart="73.45">
        <route edges="10 8 5"/>
    </vehicle>
    <vehicle id="flow2.25" depart="73.45">
        <route edges="15 6 7 9"/>
    </vehicle>
    <vehicle id="flow1.26" depart="76.39">
        <route edges="10 8 5"/>
    </vehicle>
    <vehicle id="flow2.26" depart="76.39">
        <route edges="15 6 7 9"/>
    </vehicle>
    <vehicle id="flow1.27" depart="79.33">
        <route edges="10 8 5"/>
    </vehicle>
    <vehicle id="flow2.27" depart="79.33">
        <route edges="15 6 7 9"/>
    </vehicle>
    <vehicle id="flow1.28" depart="82.26">
        <route edges="10 8 5"/>
    </vehicle>
    <vehicle id="flow2.28" depart="82.26">
        <route edges="15 6 7 9"/>
    </vehicle>
    <vehicle id="flow8.7" depart="83.17">
        <route edges="4 2"/>
    </vehicle>
    <vehicle id="flow5.7" depart="83.44">
        <route edges="1 3"/>
    </vehicle>
    <vehicle id="flow4.3" depart="84.38">
        <route edges="15 6 3"/>
    </vehicle>
    <vehicle id="flow3.3" depart="85.04">
        <route edges="10 8 2"/>
    </vehicle>
    <vehicle id="flow1.29" depart="85.20">
        <route edges="10 8 5"/>
    </vehicle>
    <vehicle id="flow2.29" depart="85.20">
        <route edges="15 6 7 9"/>
    </vehicle>
    <vehicle id="flow1.30" depart="88.14">
        <route edges="10 8 5"/>
    </vehicle>
    <vehicle id="flow2.30" depart="88.14">
        <route edges="15 6 7 9"/>
    </vehicle>
    <vehicle id="flow1.31" depart="91.08">
        <route edges="10 8 5"/>
    </vehicle>
    <vehicle id="flow2.31" depart="91.08">
        <route edges="15 6 7 9"/>
    </vehicle>
    <vehicle id="flow1.32" depart="94.02">
        <route edges="10 8 5"/>
    </vehicle>
    <vehicle id="flow2.32" depart="94.02">
        <route edges="15 6 7 9"/>
    </vehicle>
    <vehicle id="flow10.1" depart="94.74">
        <route edges="4 7 9"/>
    </vehicle>
    <vehicle id="flow6.1" depart="94.74">
        <route edges="1 5"/>
    </vehicle>
    <vehicle id="flow8.8" depart="95.05">
        <route edges="4 2"/>
    </vehicle>
    <vehicle id="flow5.8" depart="95.36">
        <route edges="1 3"/>
    </vehicle>
    <vehicle id="flow1.33" depart="96.95">
        <route edges="10 8 5"/>
    </vehicle>
    <vehicle id="flow2.33" depart="96.95">
        <route edges="15 6 7 9"/>
    </vehicle>
    <vehicle id="flow7.1" depart="97.30">
        <route edges="1 7 9"/>
    </vehicle>
    <vehicle id="flow9.1" depart="97.30">
        <route edges="4 5"/>
    </vehicle>
    <vehicle id="flow1.34" depart="99.89">
        <route edges="10 8 5"/>
    </vehicle>
    <vehicle id="flow2.34" depart="99.89">
        <route edges="15 6 7 9"/>
    </vehicle>
    <vehicle id="flow1.35" depart="102.83">
        <route edges="10 8 5"/>
    </vehicle>
    <vehicle id="flow2.35" depart="102.83">
        <route edges="15 6 7 9"/>
    </vehicle>
    <vehicle id="flow1.36" depart="105.77">
        <route edges="10 8 5"/>
    </vehicle>
    <vehicle id="flow2.36" depart="105.77">
        <route edges="15 6 7 9"/>
    </vehicle>
    <vehicle id="flow8.9" depart="106.93">
        <route edges="4 2"/>
    </vehicle>
    <vehicle id="flow5.9" depart="107.28">
        <route edges="1 3"/>
    </vehicle>
    <vehicle id="flow1.37" depart="108.71">
        <route edges="10 8 5"/>
    </vehicle>
    <vehicle id="flow2.37" depart="108.71">
        <route edges="15 6 7 9"/>
    </vehicle>
    <vehicle id="flow1.38" depart="111.64">
        <route edges="10 8 5"/>
    </vehicle>
    <vehicle id="flow2.38" depart="111.64">
        <route edges="15 6 7 9"/>
    </vehicle>
    <vehicle id="flow4.4" depart="112.50">
        <route edges="15 6 3"/>
    </vehicle>
    <vehicle id="flow3.4" depart="113.38">
        <route edges="10 8 2"/>
    </vehicle>
    <vehicle id="flow1.39" depart="114.58">
        <route edges="10 8 5"/>
    </vehicle>
    <vehicle id="flow2.39" depart="114.58">
        <route edges="15 6 7 9"/>
    </vehicle>
    <vehicle id="flow1.40" depart="117.52">
        <route edges="10 8 5"/>
    </vehicle>
    <vehicle id="flow2.40" depart="117.52">
        <route edges="15 6 7 9"/>
    </vehicle>
    <vehicle id="flow8.10" depart="118.81">
        <route edges="4 2"/>
    </vehicle>
    <vehicle id="flow5.10" depart="119.20">
        <route edges="1 3"/>
    </vehicle>
    <vehicle id="flow1.41" depart="120.46">
        <route edges="10 8 5"/>
    </vehicle>
    <vehicle id="flow2.41" depart="120.46">
        <route edges="15 6 7 9"/>
    </vehicle>
    <vehicle id="flow1.42" depart="123.40">
        <route edges="10 8 5"/>
    </vehicle>
    <vehicle id="flow2.42" depart="123.40">
        <route edges="15 6 7 9"/>
    </vehicle>
    <vehicle id="flow1.43" depart="126.33">
        <route edges="10 8 5"/>
    </vehicle>
    <vehicle id="flow2.43" depart="126.33">
        <route edges="15 6 7 9"/>
    </vehicle>
    <vehicle id="flow1.44" depart="129.27">
        <route edges="10 8 5"/>
    </vehicle>
    <vehicle id="flow2.44" depart="129.27">
        <route edges="15 6 7 9"/>
    </vehicle>
    <vehicle id="flow8.11" depart="130.69">
        <route edges="4 2"/>
    </vehicle>
    <vehicle id="flow5.11" depart="131.12">
        <route edges="1 3"/>
    </vehicle>
    <vehicle id="flow1.45" depart="132.21">
        <route edges="10 8 5"/>
    </vehicle>
    <vehicle id="flow2.45" depart="132.21">
        <route edges="15 6 7 9"/>
    </vehicle>
    <vehicle id="flow1.46" depart="135.15">
        <route edges="10 8 5"/>
    </vehicle>
    <vehicle id="flow2.46" depart="135.15">
        <route edges="15 6 7 9"/>
    </vehicle>
    <vehicle id="flow1.47" depart="138.09">
        <route edges="10 8 5"/>
    </vehicle>
    <vehicle id="flow2.47" depart="138.09">
        <route edges="15 6 7 9"/>
    </vehicle>
    <vehicle id="flow4.5" depart="140.63">
        <route edges="15 6 3"/>
    </vehicle>
    <vehicle id="flow1.48" depart="141.02">
        <route edges="10 8 5"/>
    </vehicle>
    <vehicle id="flow2.48" depart="141.02">
        <route edges="15 6 7 9"/>
    </vehicle>
    <vehicle id="flow3.5" depart="141.73">
        <route edges="10 8 2"/>
    </vehicle>
    <vehicle id="flow8.12" depart="142.57">
        <route edges="4 2"/>
    </vehicle>
    <vehicle id="flow5.12" depart="143.04">
        <route edges="1 3"/>
    </vehicle>
    <vehicle id="flow1.49" depart="143.96">
        <route edges="10 8 5"/>
    </vehicle>
    <vehicle id="flow2.49" depart="143.96">
        <route edges="15 6 7 9"/>
    </vehicle>
    <vehicle id="flow1.50" depart="146.90">
        <route edges="10 8 5"/>
    </vehicle>
    <vehicle id="flow2.50" depart="146.90">
        <route edges="15 6 7 9"/>
    </vehicle>
    <vehicle id="flow1.51" depart="149.84">
        <route edges="10 8 5"/>
    </vehicle>
    <vehicle id="flow2.51" depart="149.84">
        <route edges="15 6 7 9"/>
    </vehicle>
    <vehicle id="flow1.52" depart="152.78">
        <route edges="10 8 5"/>
    </vehicle>
    <vehicle id="flow2.52" depart="152.78">
        <route edges="15 6 7 9"/>
    </vehicle>
    <vehicle id="flow8.13" depart="154.45">
        <route edges="4 2"/>
    </vehicle>
    <vehicle id="flow5.13" depart="154.96">
        <route edges="1 3"/>
    </vehicle>
    <vehicle id="flow1.53" depart="155.71">
        <route edges="10 8 5"/>
    </vehicle>
    <vehicle id="flow2.53" depart="155.71">
        <route edges="15 6 7 9"/>
    </vehicle>
    <vehicle id="flow1.54" depart="158.65">
        <route edges="10 8 5"/>
    </vehicle>
    <vehicle id="flow2.54" depart="158.65">
        <route edges="15 6 7 9"/>
    </vehicle>
    <vehicle id="flow1.55" depart="161.59">
        <route edges="10 8 5"/>
    </vehicle>
    <vehicle id="flow2.55" depart="161.59">
        <route edges="15 6 7 9"/>
    </vehicle>
    <vehicle id="flow1.56" depart="164.53">
        <route edges="10 8 5"/>
    </vehicle>
    <vehicle id="flow2.56" depart="164.53">
        <route edges="15 6 7 9"/>
    </vehicle>
    <vehicle id="flow8.14" depart="166.33">
        <route edges="4 2"/>
    </vehicle>
    <vehicle id="flow5.14" depart="166.88">
        <route edges="1 3"/>
    </vehicle>
    <vehicle id="flow1.57" depart="167.47">
        <route edges="10 8 5"/>
    </vehicle>
    <vehicle id="flow2.57" depart="167.47">
        <route edges="15 6 7 9"/>
    </vehicle>
    <vehicle id="flow4.6" depart="168.75">
        <route edges="15 6 3"/>
    </vehicle>
    <vehicle id="flow3.6" depart="170.08">
        <route edges="10 8 2"/>
    </vehicle>
    <vehicle id="flow1.58" depart="170.40">
        <route edges="10 8 5"/>
    </vehicle>
    <vehicle id="flow2.58" depart="170.40">
        <route edges="15 6 7 9"/>
    </vehicle>
    <vehicle id="flow1.59" depart="173.34">
        <route edges="10 8 5"/>
    </vehicle>
    <vehicle id="flow2.59" depart="173.34">
        <route edges="15 6 7 9"/>
    </vehicle>
    <vehicle id="flow1.60" depart="176.28">
        <route edges="10 8 5"/>
    </vehicle>
    <vehicle id="flow2.60" depart="176.28">
        <route edges="15 6 7 9"/>
    </vehicle>
    <vehicle id="flow8.15" depart="178.22">
        <route edges="4 2"/>
    </vehicle>
    <vehicle id="flow5.15" depart="178.80">
        <route edges="1 3"/>
    </vehicle>
    <vehicle id="flow1.61" depart="179.22">
        <route edges="10 8 5"/>
    </vehicle>
    <vehicle id="flow2.61" depart="179.22">
        <route edges="15 6 7 9"/>
    </vehicle>
    <vehicle id="flow1.62" depart="182.16">
        <route edges="10 8 5"/>
    </vehicle>
    <vehicle id="flow2.62" depart="182.16">
        <route edges="15 6 7 9"/>
    </vehicle>
    <vehicle id="flow1.63" depart="185.09">
        <route edges="10 8 5"/>
    </vehicle>
    <vehicle id="flow2.63" depart="185.09">
        <route edges="15 6 7 9"/>
    </vehicle>
    <vehicle id="flow1.64" depart="188.03">
        <route edges="10 8 5"/>
    </vehicle>
    <vehicle id="flow2.64" depart="188.03">
        <route edges="15 6 7 9"/>
    </vehicle>
    <vehicle id="flow10.2" depart="189.47">
        <route edges="4 7 9"/>
    </vehicle>
    <vehicle id="flow6.2" depart="189.47">
        <route edges="1 5"/>
    </vehicle>
    <vehicle id="flow8.16" depart="190.10">
        <route edges="4 2"/>
    </vehicle>
    <vehicle id="flow5.16" depart="190.72">
        <route edges="1 3"/>
    </vehicle>
    <vehicle id="flow1.65" depart="190.97">
        <route edges="10 8 5"/>
    </vehicle>
    <vehicle id="flow2.65" depart="190.97">
        <route edges="15 6 7 9"/>
    </vehicle>
    <vehicle id="flow1.66" depart="193.91">
        <route edges="10 8 5"/>
    </vehicle>
    <vehicle id="flow2.66" depart="193.91">
        <route edges="15 6 7 9"/>
    </vehicle>
    <vehicle id="flow7.2" depart="194.59">
        <route edges="1 7 9"/>
    </vehicle>
    <vehicle id="flow9.2" depart="194.59">
        <route edges="4 5"/>
    </vehicle>
    <vehicle id="flow1.67" depart="196.85">
        <route edges="10 8 5"/>
    </vehicle>
    <vehicle id="flow2.67" depart="196.85">
        <route edges="15 6 7 9"/>
    </vehicle>
    <vehicle id="flow4.7" depart="196.88">
        <route edges="15 6 3"/>
    </vehicle>
    <vehicle id="flow3.7" depart="198.42">
        <route edges="10 8 2"/>
    </vehicle>
    <vehicle id="flow1.68" depart="199.78">
        <route edges="10 8 5"/>
    </vehicle>
    <vehicle id="flow2.68" depart="199.78">
        <route edges="15 6 7 9"/>
    </vehicle>
    <vehicle id="flow8.17" depart="201.98">
        <route edges="4 2"/>
    </vehicle>
    <vehicle id="flow5.17" depart="202.64">
        <route edges="1 3"/>
    </vehicle>
    <vehicle id="flow1.69" depart="202.72">
        <route edges="10 8 5"/>
    </vehicle>
    <vehicle id="flow2.69" depart="202.72">
        <route edges="15 6 7 9"/>
    </vehicle>
    <vehicle id="flow1.70" depart="205.66">
        <route edges="10 8 5"/>
    </vehicle>
    <vehicle id="flow2.70" depart="205.66">
        <route edges="15 6 7 9"/>
    </vehicle>
    <vehicle id="flow1.71" depart="208.60">
        <route edges="10 8 5"/>
    </vehicle>
    <vehicle id="flow2.71" depart="208.60">
        <route edges="15 6 7 9"/>
    </vehicle>
    <vehicle id="flow1.72" depart="211.54">
        <route edges="10 8 5"/>
    </vehicle>
    <vehicle id="flow2.72" depart="211.54">
        <route edges="15 6 7 9"/>
    </vehicle>
    <vehicle id="flow8.18" depart="213.86">
        <route edges="4 2"/>
    </vehicle>
    <vehicle id="flow1.73" depart="214.47">
        <route edges="10 8 5"/>
    </vehicle>
    <vehicle id="flow2.73" depart="214.47">
        <route edges="15 6 7 9"/>
    </vehicle>
    <vehicle id="flow5.18" depart="214.56">
        <route edges="1 3"/>
    </vehicle>
    <vehicle id="flow1.74" depart="217.41">
        <route edges="10 8 5"/>
    </vehicle>
    <vehicle id="flow2.74" depart="217.41">
        <route edges="15 6 7 9"/>
    </vehicle>
    <vehicle id="flow1.75" depart="220.35">
        <route edges="10 8 5"/>
    </vehicle>
    <vehicle id="flow2.75" depart="220.35">
        <route edges="15 6 7 9"/>
    </vehicle>
    <vehicle id="flow1.76" depart="223.29">
        <route edges="10 8 5"/>
    </vehicle>
    <vehicle id="flow2.76" depart="223.29">
        <route edges="15 6 7 9"/>
    </vehicle>
    <vehicle id="flow4.8" depart="225.00">
        <route edges="15 6 3"/>
    </vehicle>
    <vehicle id="flow8.19" depart="225.74">
        <route edges="4 2"/>
    </vehicle>
    <vehicle id="flow1.77" depart="226.23">
        <route edges="10 8 5"/>
    </vehicle>
    <vehicle id="flow2.77" depart="226.23">
        <route edges="15 6 7 9"/>
    </vehicle>
    <vehicle id="flow5.19" depart="226.48">
        <route edges="1 3"/>
    </vehicle>
    <vehicle id="flow3.8" depart="226.77">
        <route edges="10 8 2"/>
    </vehicle>
    <vehicle id="flow1.78" depart="229.16">
        <route edges="10 8 5"/>
    </vehicle>
    <vehicle id="flow2.78" depart="229.16">
        <route edges="15 6 7 9"/>
    </vehicle>
    <vehicle id="flow1.79" depart="232.10">
        <route edges="10 8 5"/>
    </vehicle>
    <vehicle id="flow2.79" depart="232.10">
        <route edges="15 6 7 9"/>
    </vehicle>
    <vehicle id="flow1.80" depart="235.04">
        <route edges="10 8 5"/>
    </vehicle>
    <vehicle id="flow2.80" depart="235.04">
        <route edges="15 6 7 9"/>
    </vehicle>
    <vehicle id="flow8.20" depart="237.62">
        <route edges="4 2"/>
    </vehicle>
    <vehicle id="flow1.81" depart="237.98">
        <route edges="10 8 5"/>
    </vehicle>
    <vehicle id="flow2.81" depart="237.98">
        <route edges="15 6 7 9"/>
    </vehicle>
    <vehicle id="flow5.20" depart="238.40">
        <route edges="1 3"/>
    </vehicle>
    <vehicle id="flow1.82" depart="240.92">
        <route edges="10 8 5"/>
    </vehicle>
    <vehicle id="flow2.82" depart="240.92">
        <route edges="15 6 7 9"/>
    </vehicle>
    <vehicle id="flow1.83" depart="243.85">
        <route edges="10 8 5"/>
    </vehicle>
    <vehicle id="flow2.83" depart="243.85">
        <route edges="15 6 7 9"/>
    </vehicle>
    <vehicle id="flow1.84" depart="246.79">
        <route edges="10 8 5"/>
    </vehicle>
    <vehicle id="flow2.84" depart="246.79">
        <route edges="15 6 7 9"/>
    </vehicle>
    <vehicle id="flow8.21" depart="249.50">
        <route edges="4 2"/>
    </vehicle>
    <vehicle id="flow1.85" depart="249.73">
        <route edges="10 8 5"/>
    </vehicle>
    <vehicle id="flow2.85" depart="249.73">
        <route edges="15 6 7 9"/>
    </vehicle>
    <vehicle id="flow5.21" depart="250.32">
        <route edges="1 3"/>
    </vehicle>
    <vehicle id="flow1.86" depart="252.67">
        <route edges="10 8 5"/>
    </vehicle>
    <vehicle id="flow2.86" depart="252.67">
        <route edges="15 6 7 9"/>
    </vehicle>
    <vehicle id="flow4.9" depart="253.13">
        <route edges="15 6 3"/>
    </vehicle>
    <vehicle id="flow3.9" depart="255.11">
        <route edges="10 8 2"/>
    </vehicle>
    <vehicle id="flow1.87" depart="255.61">
        <route edges="10 8 5"/>
    </vehicle>
    <vehicle id="flow2.87" depart="255.61">
        <route edges="15 6 7 9"/>
    </vehicle>
    <vehicle id="flow1.88" depart="258.54">
        <route edges="10 8 5"/>
    </vehicle>
    <vehicle id="flow2.88" depart="258.54">
        <route edges="15 6 7 9"/>
    </vehicle>
    <vehicle id="flow8.22" depart="261.38">
        <route edges="4 2"/>
    </vehicle>
    <vehicle id="flow1.89" depart="261.48">
        <route edges="10 8 5"/>
    </vehicle>
    <vehicle id="flow2.89" depart="261.48">
        <route edges="15 6 7 9"/>
    </vehicle>
    <vehicle id="flow5.22" depart="262.24">
        <route edges="1 3"/>
    </vehicle>
    <vehicle id="flow1.90" depart="264.42">
        <route edges="10 8 5"/>
    </vehicle>
    <vehicle id="flow2.90" depart="264.42">
        <route edges="15 6 7 9"/>
    </vehicle>
    <vehicle id="flow1.91" depart="267.36">
        <route edges="10 8 5"/>
    </vehicle>
    <vehicle id="flow2.91" depart="267.36">
        <route edges="15 6 7 9"/>
    </vehicle>
    <vehicle id="flow1.92" depart="270.30">
        <route edges="10 8 5"/>
    </vehicle>
    <vehicle id="flow2.92" depart="270.30">
        <route edges="15 6 7 9"/>
    </vehicle>
    <vehicle id="flow1.93" depart="273.23">
        <route edges="10 8 5"/>
    </vehicle>
    <vehicle id="flow2.93" depart="273.23">
        <route edges="15 6 7 9"/>
    </vehicle>
    <vehicle id="flow8.23" depart="273.26">
        <route edges="4 2"/>
    </vehicle>
    <vehicle id="flow5.23" depart="274.16">
        <route edges="1 3"/>
    </vehicle>
    <vehicle id="flow1.94" depart="276.17">
        <route edges="10 8 5"/>
    </vehicle>
    <vehicle id="flow2.94" depart="276.17">
        <route edges="15 6 7 9"/>
    </vehicle>
    <vehicle id="flow1.95" depart="279.11">
        <route edges="10 8 5"/>
    </vehicle>
    <vehicle id="flow2.95" depart="279.11">
        <route edges="15 6 7 9"/>
    </vehicle>
    <vehicle id="flow4.10" depart="281.25">
        <route edges="15 6 3"/>
    </vehicle>
    <vehicle id="flow1.96" depart="282.05">
        <route edges="10 8 5"/>
    </vehicle>
    <vehicle id="flow2.96" depart="282.05">
        <route edges="15 6 7 9"/>
    </vehicle>
    <vehicle id="flow3.10" depart="283.46">
        <route edges="10 8 2"/>
    </vehicle>
    <vehicle id="flow10.3" depart="284.21">
        <route edges="4 7 9"/>
    </vehicle>
    <vehicle id="flow6.3" depart="284.21">
        <route edges="1 5"/>
    </vehicle>
    <vehicle id="flow1.97" depart="284.99">
        <route edges="10 8 5"/>
    </vehicle>
    <vehicle id="flow2.97" depart="284.99">
        <route edges="15 6 7 9"/>
    </vehicle>
    <vehicle id="flow8.24" depart="285.14">
        <route edges="4 2"/>
    </vehicle>
    <vehicle id="flow5.24" depart="286.08">
        <route edges="1 3"/>
    </vehicle>
    <vehicle id="flow1.98" depart="287.92">
        <route edges="10 8 5"/>
    </vehicle>
    <vehicle id="flow2.98" depart="287.92">
        <route edges="15 6 7 9"/>
    </vehicle>
    <vehicle id="flow1.99" depart="290.86">
        <route edges="10 8 5"/>
    </vehicle>
    <vehicle id="flow2.99" depart="290.86">
        <route edges="15 6 7 9"/>
    </vehicle>
    <vehicle id="flow7.3" depart="291.89">
        <route edges="1 7 9"/>
    </vehicle>
    <vehicle id="flow9.3" depart="291.89">
        <route edges="4 5"/>
    </vehicle>
    <vehicle id="flow1.100" depart="293.80">
        <route edges="10 8 5"/>
    </vehicle>
    <vehicle id="flow2.100" depart="293.80">
        <route edges="15 6 7 9"/>
    </vehicle>
    <vehicle id="flow1.101" depart="296.74">
        <route edges="10 8 5"/>
    </vehicle>
    <vehicle id="flow2.101" depart="296.74">
        <route edges="15 6 7 9"/>
    </vehicle>
    <vehicle id="flow8.25" depart="297.02">
        <route edges="4 2"/>
    </vehicle>
    <vehicle id="flow5.25" depart="298.00">
        <route edges="1 3"/>
    </vehicle>
    <vehicle id="flow1.102" depart="299.68">
        <route edges="10 8 5"/>
    </vehicle>
    <vehicle id="flow2.102" depart="299.68">
        <route edges="15 6 7 9"/>
    </vehicle>
    <vehicle id="flow1.103" depart="302.61">
        <route edges="10 8 5"/>
    </vehicle>
    <vehicle id="flow2.103" depart="302.61">
        <route edges="15 6 7 9"/>
    </vehicle>
    <vehicle id="flow1.104" depart="305.55">
        <route edges="10 8 5"/>
    </vehicle>
    <vehicle id="flow2.104" depart="305.55">
        <route edges="15 6 7 9"/>
    </vehicle>
    <vehicle id="flow1.105" depart="308.49">
        <route edges="10 8 5"/>
    </vehicle>
    <vehicle id="flow2.105" depart="308.49">
        <route edges="15 6 7 9"/>
    </vehicle>
    <vehicle id="flow8.26" depart="308.91">
        <route edges="4 2"/>
    </vehicle>
    <vehicle id="flow4.11" depart="309.38">
        <route edges="15 6 3"/>
    </vehicle>
    <vehicle id="flow5.26" depart="309.92">
        <route edges="1 3"/>
    </vehicle>
    <vehicle id="flow1.106" depart="311.43">
        <route edges="10 8 5"/>
    </vehicle>
    <vehicle id="flow2.106" depart="311.43">
        <route edges="15 6 7 9"/>
    </vehicle>
    <vehicle id="flow3.11" depart="311.81">
        <route edges="10 8 2"/>
    </vehicle>
    <vehicle id="flow1.107" depart="314.37">
        <route edges="10 8 5"/>
    </vehicle>
    <vehicle id="flow2.107" depart="314.37">
        <route edges="15 6 7 9"/>
    </vehicle>
    <vehicle id="flow1.108" depart="317.30">
        <route edges="10 8 5"/>
    </vehicle>
    <vehicle id="flow2.108" depart="317.30">
        <route edges="15 6 7 9"/>
    </vehicle>
    <vehicle id="flow1.109" depart="320.24">
        <route edges="10 8 5"/>
    </vehicle>
    <vehicle id="flow2.109" depart="320.24">
        <route edges="15 6 7 9"/>
    </vehicle>
    <vehicle id="flow8.27" depart="320.79">
        <route edges="4 2"/>
    </vehicle>
    <vehicle id="flow5.27" depart="321.84">
        <route edges="1 3"/>
    </vehicle>
    <vehicle id="flow1.110" depart="323.18">
        <route edges="10 8 5"/>
    </vehicle>
    <vehicle id="flow2.110" depart="323.18">
        <route edges="15 6 7 9"/>
    </vehicle>
    <vehicle id="flow1.111" depart="326.12">
        <route edges="10 8 5"/>
    </vehicle>
    <vehicle id="flow2.111" depart="326.12">
        <route edges="15 6 7 9"/>
    </vehicle>
    <vehicle id="flow1.112" depart="329.06">
        <route edges="10 8 5"/>
    </vehicle>
    <vehicle id="flow2.112" depart="329.06">
        <route edges="15 6 7 9"/>
    </vehicle>
    <vehicle id="flow1.113" depart="331.99">
        <route edges="10 8 5"/>
    </vehicle>
    <vehicle id="flow2.113" depart="331.99">
        <route edges="15 6 7 9"/>