<?xml version="1.0" encoding="UTF-8"?>

<!-- generated on 07/11/19 19:17:24 by Eclipse SUMO duarouter Version 1.0.1
<configuration xmlns:xsi="http://www.w3.org/2001/XMLSchema-instance" xsi:noNamespaceSchemaLocation="http://sumo.dlr.de/xsd/duarouterConfiguration.xsd">

    <input>
        <net-file value="gnet.net.xml"/>
        <route-files value="gflow.flow.xml"/>
    </input>

    <output>
        <output-file value="grou.rou.xml"/>
        <alternatives-output value="grou.rou.alt.xml"/>
    </output>

</configuration>
-->

<routes xmlns:xsi="http://www.w3.org/2001/XMLSchema-instance" xsi:noNamespaceSchemaLocation="http://sumo.dlr.de/xsd/routes_file.xsd">
    <vType id="Car1" length="5.00" maxSpeed="40.00" accel="3.0" decel="6.0" sigma="0.5" tau="12.1"/>
    <vehicle id="flow1.0" type="Car1" depart="0.00">
        <route edges="4 2"/>
    </vehicle>
    <vType id="Car10" length="5.00" maxSpeed="40.00" accel="3.0" decel="6.0" sigma="0.5" tau="5.3"/>
    <vehicle id="flow10.0" type="Car10" depart="0.00">
        <route edges="1 5"/>
    </vehicle>
    <vType id="Car11" length="5.00" maxSpeed="40.00" accel="3.0" decel="6.0" sigma="0.5" tau="5.3"/>
    <vehicle id="flow11.0" type="Car11" depart="0.00">
        <route edges="1 3"/>
    </vehicle>
    <vType id="Car12" length="5.00" maxSpeed="40.00" accel="3.0" decel="6.0" sigma="0.5" tau="5.3"/>
    <vehicle id="flow12.0" type="Car12" depart="0.00">
        <route edges="1 7 9"/>
    </vehicle>
    <vType id="Car2" length="5.00" maxSpeed="40.00" accel="3.0" decel="6.0" sigma="0.5" tau="12.1"/>
    <vehicle id="flow2.0" type="Car2" depart="0.00">
        <route edges="4 5"/>
    </vehicle>
    <vType id="Car3" length="5.00" maxSpeed="40.00" accel="3.0" decel="6.0" sigma="0.5" tau="24.12"/>
    <vehicle id="flow3.0" type="Car3" depart="0.00">
        <route edges="4 7 9"/>
    </vehicle>
    <vType id="Car4" length="5.00" maxSpeed="70.00" accel="3.0" decel="6.0" sigma="0.5" tau="5.43"/>
    <vehicle id="flow4.0" type="Car4" depart="0.00">
        <route edges="10 8 5"/>
    </vehicle>
    <vType id="Car5" length="5.00" maxSpeed="70.00" accel="3.0" decel="6.0" sigma="0.5" tau="5.77"/>
    <vehicle id="flow5.0" type="Car5" depart="0.00">
        <route edges="10 8 3"/>
    </vehicle>
    <vType id="Car6" length="5.00" maxSpeed="70.00" accel="3.0" decel="6.0" sigma="0.5" tau="13.43"/>
    <vehicle id="flow6.0" type="Car6" depart="0.00">
        <route edges="10 8 2"/>
    </vehicle>
    <vType id="Car7" length="5.00" maxSpeed="70.00" accel="3.0" decel="6.0" sigma="0.5" tau="7.43"/>
    <vehicle id="flow7.0" type="Car7" depart="0.00">
        <route edges="15 6 7 9"/>
    </vehicle>
    <vType id="Car8" length="5.00" maxSpeed="70.00" accel="3.0" decel="6.0" sigma="0.5" tau="7.26"/>
    <vehicle id="flow8.0" type="Car8" depart="0.00">
        <route edges="15 6 2"/>
    </vehicle>
    <vType id="Car9" length="5.00" maxSpeed="70.00" accel="3.0" decel="6.0" sigma="0.5" tau="50.97"/>
    <vehicle id="flow9.0" type="Car9" depart="0.00">
        <route edges="15 6 3"/>
    </vehicle>
    <vehicle id="flow7.1" type="Car7" depart="10.84">
        <route edges="15 6 7 9"/>
    </vehicle>
    <vehicle id="flow4.1" type="Car4" depart="15.00">
        <route edges="10 8 5"/>
    </vehicle>
    <vehicle id="flow7.2" type="Car7" depart="21.69">
        <route edges="15 6 7 9"/>
    </vehicle>
    <vehicle id="flow4.2" type="Car4" depart="30.00">
        <route edges="10 8 5"/>
    </vehicle>
    <vehicle id="flow7.3" type="Car7" depart="32.53">
        <route edges="15 6 7 9"/>
    </vehicle>
    <vehicle id="flow7.4" type="Car7" depart="43.37">
        <route edges="15 6 7 9"/>
    </vehicle>
    <vehicle id="flow10.1" type="Car10" depart="45.00">
        <route edges="1 5"/>
    </vehicle>
    <vehicle id="flow4.3" type="Car4" depart="45.00">
        <route edges="10 8 5"/>
    </vehicle>
    <vehicle id="flow7.5" type="Car7" depart="54.22">
        <route edges="15 6 7 9"/>
    </vehicle>
    <vehicle id="flow12.1" type="Car12" depart="56.25">
        <route edges="1 7 9"/>
    </vehicle>
    <vehicle id="flow4.4" type="Car4" depart="60.00">
        <route edges="10 8 5"/>
    </vehicle>
    <vehicle id="flow7.6" type="Car7" depart="65.06">
        <route edges="15 6 7 9"/>
    </vehicle>
    <vehicle id="flow2.1" type="Car2" depart="70.59">
        <route edges="4 5"/>
    </vehicle>
    <vehicle id="flow6.1" type="Car6" depart="70.59">
        <route edges="10 8 2"/>
    </vehicle>
    <vehicle id="flow4.5" type="Car4" depart="75.00">
        <route edges="10 8 5"/>
    </vehicle>
    <vehicle id="flow7.7" type="Car7" depart="75.90">
        <route edges="15 6 7 9"/>
    </vehicle>
    <vehicle id="flow7.8" type="Car7" depart="86.74">
        <route edges="15 6 7 9"/>
    </vehicle>
    <vehicle id="flow5.1" type="Car5" depart="87.80">
        <route edges="10 8 3"/>
    </vehicle>
    <vehicle id="flow10.2" type="Car10" depart="90.00">
        <route edges="1 5"/>
    </vehicle>
    <vehicle id="flow3.1" type="Car3" depart="90.00">
        <route edges="4 7 9"/>
    </vehicle>
    <vehicle id="flow4.6" type="Car4" depart="90.00">
        <route edges="10 8 5"/>
    </vehicle>
    <vehicle id="flow7.9" type="Car7" depart="97.59">
        <route edges="15 6 7 9"/>
    </vehicle>
    <vehicle id="flow4.7" type="Car4" depart="105.00">
        <route edges="10 8 5"/>
    </vehicle>
    <vehicle id="flow7.10" type="Car7" depart="108.43">
        <route edges="15 6 7 9"/>
    </vehicle>
    <vehicle id="flow12.2" type="Car12" depart="112.50">
        <route edges="1 7 9"/>
    </vehicle>
    <vehicle id="flow7.11" type="Car7" depart="119.27">
        <route edges="15 6 7 9"/>
    </vehicle>
    <vehicle id="flow4.8" type="Car4" depart="120.00">
        <route edges="10 8 5"/>
    </vehicle>
    <vehicle id="flow7.12" type="Car7" depart="130.12">
        <route edges="15 6 7 9"/>
    </vehicle>
    <vehicle id="flow10.3" type="Car10" depart="135.00">
        <route edges="1 5"/>
    </vehicle>
    <vehicle id="flow4.9" type="Car4" depart="135.00">
        <route edges="10 8 5"/>
    </vehicle>
    <vehicle id="flow7.13" type="Car7" depart="140.96">
        <route edges="15 6 7 9"/>
    </vehicle>
    <vehicle id="flow2.2" type="Car2" depart="141.18">
        <route edges="4 5"/>
    </vehicle>
    <vehicle id="flow6.2" type="Car6" depart="141.18">
        <route edges="10 8 2"/>
    </vehicle>
    <vehicle id="flow8.1" type="Car8" depart="144.00">
        <route edges="15 6 2"/>
    </vehicle>
    <vehicle id="flow4.10" type="Car4" depart="150.00">
        <route edges="10 8 5"/>
    </vehicle>
    <vehicle id="flow7.14" type="Car7" depart="151.80">
        <route edges="15 6 7 9"/>
    </vehicle>
    <vehicle id="flow7.15" type="Car7" depart="162.65">
        <route edges="15 6 7 9"/>
    </vehicle>
    <vehicle id="flow1.1" type="Car1" depart="163.64">
        <route edges="4 2"/>
    </vehicle>
    <vehicle id="flow4.11" type="Car4" depart="165.00">
        <route edges="10 8 5"/>
    </vehicle>
    <vehicle id="flow12.3" type="Car12" depart="168.75">
        <route edges="1 7 9"/>
    </vehicle>
    <vehicle id="flow7.16" type="Car7" depart="173.49">
        <route edges="15 6 7 9"/>
    </vehicle>
    <vehicle id="flow5.2" type="Car5" depart="175.61">
        <route edges="10 8 3"/>
    </vehicle>
    <vehicle id="flow10.4" type="Car10" depart="180.00">
        <route edges="1 5"/>
    </vehicle>
    <vehicle id="flow3.2" type="Car3" depart="180.00">
        <route edges="4 7 9"/>
    </vehicle>
    <vehicle id="flow4.12" type="Car4" depart="180.00">
        <route edges="10 8 5"/>
    </vehicle>
    <vehicle id="flow7.17" type="Car7" depart="184.33">
        <route edges="15 6 7 9"/>
    </vehicle>
    <vehicle id="flow4.13" type="Car4" depart="195.00">
        <route edges="10 8 5"/>
    </vehicle>
    <vehicle id="flow7.18" type="Car7" depart="195.17">
        <route edges="15 6 7 9"/>
    </vehicle>
    <vehicle id="flow7.19" type="Car7" depart="206.02">
        <route edges="15 6 7 9"/>
    </vehicle>
    <vehicle id="flow4.14" type="Car4" depart="210.00">
        <route edges="10 8 5"/>
    </vehicle>
    <vehicle id="flow2.3" type="Car2" depart="211.76">
        <route edges="4 5"/>
    </vehicle>
    <vehicle id="flow6.3" type="Car6" depart="211.76">
        <route edges="10 8 2"/>
    </vehicle>
    <vehicle id="flow7.20" type="Car7" depart="216.86">
        <route edges="15 6 7 9"/>
    </vehicle>
    <vehicle id="flow10.5" type="Car10" depart="225.00">
        <route edges="1 5"/>
    </vehicle>
    <vehicle id="flow11.1" type="Car11" depart="225.00">
        <route edges="1 3"/>
    </vehicle>
    <vehicle id="flow12.4" type="Car12" depart="225.00">
        <route edges="1 7 9"/>
    </vehicle>
    <vehicle id="flow4.15" type="Car4" depart="225.00">
        <route edges="10 8 5"/>
    </vehicle>
    <vehicle id="flow7.21" type="Car7" depart="227.70">
        <route edges="15 6 7 9"/>
    </vehicle>
    <vehicle id="flow7.22" type="Car7" depart="238.55">
        <route edges="15 6 7 9"/>
    </vehicle>
    <vehicle id="flow4.16" type="Car4" depart="240.00">
        <route edges="10 8 5"/>
    </vehicle>
    <vehicle id="flow9.1" type="Car9" depart="240.00">
        <route edges="15 6 3"/>
    </vehicle>
    <vehicle id="flow7.23" type="Car7" depart="249.39">
        <route edges="15 6 7 9"/>
    </vehicle>
    <vehicle id="flow4.17" type="Car4" depart="255.00">
        <route edges="10 8 5"/>
    </vehicle>
    <vehicle id="flow7.24" type="Car7" depart="260.23">
        <route edges="15 6 7 9"/>
    </vehicle>
    <vehicle id="flow5.3" type="Car5" depart="263.41">
        <route edges="10 8 3"/>
    </vehicle>
    <vehicle id="flow10.6" type="Car10" depart="270.00">
        <route edges="1 5"/>
    </vehicle>
    <vehicle id="flow3.3" type="Car3" depart="270.00">
        <route edges="4 7 9"/>
    </vehicle>
    <vehicle id="flow4.18" type="Car4" depart="270.00">
        <route edges="10 8 5"/>
    </vehicle>
    <vehicle id="flow7.25" type="Car7" depart="271.07">
        <route edges="15 6 7 9"/>
    </vehicle>
    <vehicle id="flow12.5" type="Car12" depart="281.25">
        <route edges="1 7 9"/>
    </vehicle>
    <vehicle id="flow7.26" type="Car7" depart="281.92">
        <route edges="15 6 7 9"/>
    </vehicle>
    <vehicle id="flow2.4" type="Car2" depart="282.35">
        <route edges="4 5"/>
    </vehicle>
    <vehicle id="flow6.4" type="Car6" depart="282.35">
        <route edges="10 8 2"/>
    </vehicle>
    <vehicle id="flow4.19" type="Car4" depart="285.00">
        <route edges="10 8 5"/>
    </vehicle>
    <vehicle id="flow8.2" type="Car8" depart="288.00">
        <route edges="15 6 2"/>
    </vehicle>
    <vehicle id="flow7.27" type="Car7" depart="292.76">
        <route edges="15 6 7 9"/>
    </vehicle>
    <vehicle id="flow4.20" type="Car4" depart="300.00">
        <route edges="10 8 5"/>
    </vehicle>
    <vehicle id="flow7.28" type="Car7" depart="303.60">
        <route edges="15 6 7 9"/>
    </vehicle>
    <vehicle id="flow7.29" type="Car7" depart="314.45">
        <route edges="15 6 7 9"/>
    </vehicle>
    <vehicle id="flow10.7" type="Car10" depart="315.00">
        <route edges="1 5"/>
    </vehicle>
    <vehicle id="flow4.21" type="Car4" depart="315.00">
        <route edges="10 8 5"/>
    </vehicle>
    <vehicle id="flow7.30" type="Car7" depart="325.29">
        <route edges="15 6 7 9"/>
    </vehicle>
    <vehicle id="flow1.2" type="Car1" depart="327.27">
        <route edges="4 2"/>
    </vehicle>
    <vehicle id="flow4.22" type="Car4" depart="330.00">
        <route edges="10 8 5"/>
    </vehicle>
    <vehicle id="flow7.31" type="Car7" depart="336.13">
        <route edges="15 6 7 9"/>
    </vehicle>
    <vehicle id="flow12.6" type="Car12" depart="337.50">
        <route edges="1 7 9"/>
    </vehicle>
    <vehicle id="flow4.23" type="Car4" depart="345.00">
        <route edges="10 8 5"/>
    </vehicle>
    <vehicle id="flow7.32" type="Car7" depart="346.98">
        <route edges="15 6 7 9"/>
    </vehicle>
    <vehicle id="flow5.4" type="Car5" depart="351.22">
        <route edges="10 8 3"/>
    </vehicle>
    <vehicle id="flow2.5" type="Car2" depart="352.94">
        <route edges="4 5"/>
    </vehicle>
    <vehicle id="flow6.5" type="Car6" depart="352.94">
        <route edges="10 8 2"/>
    </vehicle>
    <vehicle id="flow7.33" type="Car7" depart="357.82">
        <route edges="15 6 7 9"/>
    </vehicle>
    <vehicle id="flow10.8" type="Car10" depart="360.00">
        <route edges="1 5"/>
    </vehicle>
    <vehicle id="flow3.4" type="Car3" depart="360.00">
        <route edges="4 7 9"/>
    </vehicle>
    <vehicle id="flow4.24" type="Car4" depart="360.00">
        <route edges="10 8 5"/>
    </vehicle>
    <vehicle id="flow7.34" type="Car7" depart="368.66">
        <route edges="15 6 7 9"/>
    </vehicle>
    <vehicle id="flow4.25" type="Car4" depart="375.00">
        <route edges="10 8 5"/>
    </vehicle>
    <vehicle id="flow7.35" type="Car7" depart="379.51">
        <route edges="15 6 7 9"/>
    </vehicle>
    <vehicle id="flow4.26" type="Car4" depart="390.00">
        <route edges="10 8 5"/>
    </vehicle>
    <vehicle id="flow7.36" type="Car7" depart="390.35">
        <route edges="15 6 7 9"/>
    </vehicle>
    <vehicle id="flow12.7" type="Car12" depart="393.75">
        <route edges="1 7 9"/>
    </vehicle>
    <vehicle id="flow7.37" type="Car7" depart="401.19">
        <route edges="15 6 7 9"/>
    </vehicle>
    <vehicle id="flow10.9" type="Car10" depart="405.00">
        <route edges="1 5"/>
    </vehicle>
    <vehicle id="flow4.27" type="Car4" depart="405.00">
        <route edges="10 8 5"/>
    </vehicle>
    <vehicle id="flow7.38" type="Car7" depart="412.03">
        <route edges="15 6 7 9"/>
    </vehicle>
    <vehicle id="flow4.28" type="Car4" depart="420.00">
        <route edges="10 8 5"/>
    </vehicle>
    <vehicle id="flow7.39" type="Car7" depart="422.88">
        <route edges="15 6 7 9"/>
    </vehicle>
    <vehicle id="flow2.6" type="Car2" depart="423.53">
        <route edges="4 5"/>
    </vehicle>
    <vehicle id="flow6.6" type="Car6" depart="423.53">
        <route edges="10 8 2"/>
    </vehicle>
    <vehicle id="flow8.3" type="Car8" depart="432.00">
        <route edges="15 6 2"/>
    </vehicle>
    <vehicle id="flow7.40" type="Car7" depart="433.72">
        <route edges="15 6 7 9"/>
    </vehicle>
    <vehicle id="flow4.29" type="Car4" depart="435.00">
        <route edges="10 8 5"/>
    </vehicle>
    <vehicle id="flow5.5" type="Car5" depart="439.02">
        <route edges="10 8 3"/>
    </vehicle>
    <vehicle id="flow7.41" type="Car7" depart="444.56">
        <route edges="15 6 7 9"/>
    </vehicle>
    <vehicle id="flow10.10" type="Car10" depart="450.00">
        <route edges="1 5"/>
    </vehicle>
    <vehicle id="flow11.2" type="Car11" depart="450.00">
        <route edges="1 3"/>
    </vehicle>
    <vehicle id="flow12.8" type="Car12" depart="450.00">
        <route edges="1 7 9"/>
    </vehicle>
    <vehicle id="flow3.5" type="Car3" depart="450.00">
        <route edges="4 7 9"/>
    </vehicle>
    <vehicle id="flow4.30" type="Car4" depart="450.00">
        <route edges="10 8 5"/>
    </vehicle>
    <vehicle id="flow7.42" type="Car7" depart="455.41">
        <route edges="15 6 7 9"/>
    </vehicle>
    <vehicle id="flow4.31" type="Car4" depart="465.00">
        <route edges="10 8 5"/>
    </vehicle>
    <vehicle id="flow7.43" type="Car7" depart="466.25">
        <route edges="15 6 7 9"/>
    </vehicle>
    <vehicle id="flow7.44" type="Car7" depart="477.09">
        <route edges="15 6 7 9"/>
    </vehicle>
    <vehicle id="flow4.32" type="Car4" depart="480.00">
        <route edges="10 8 5"/>
    </vehicle>
    <vehicle id="flow9.2" type="Car9" depart="480.00">
        <route edges="15 6 3"/>
    </vehicle>
    <vehicle id="flow7.45" type="Car7" depart="487.94">
        <route edges="15 6 7 9"/>
    </vehicle>
    <vehicle id="flow1.3" type="Car1" depart="490.91">
        <route edges="4 2"/>
    </vehicle>
    <vehicle id="flow2.7" type="Car2" depart="494.12">
        <route edges="4 5"/>
    </vehicle>
    <vehicle id="flow6.7" type="Car6" depart="494.12">
        <route edges="10 8 2"/>
    </vehicle>
    <vehicle id="flow10.11" type="Car10" depart="495.00">
        <route edges="1 5"/>
    </vehicle>
    <vehicle id="flow4.33" type="Car4" depart="495.00">
        <route edges="10 8 5"/>
    </vehicle>
    <vehicle id="flow7.46" type="Car7" depart="498.78">
        <route edges="15 6 7 9"/>
    </vehicle>
    <vehicle id="flow12.9" type="Car12" depart="506.25">
        <route edges="1 7 9"/>
    </vehicle>
    <vehicle id="flow7.47" type="Car7" depart="509.62">
        <route edges="15 6 7 9"/>
    </vehicle>
    <vehicle id="flow4.34" type="Car4" depart="510.00">
        <route edges="10 8 5"/>
    </vehicle>
    <vehicle id="flow7.48" type="Car7" depart="520.46">
        <route edges="15 6 7 9"/>
    </vehicle>
    <vehicle id="flow4.35" type="Car4" depart="525.00">
        <route edges="10 8 5"/>
    </vehicle>
    <vehicle id="flow5.6" type="Car5" depart="526.82">
        <route edges="10 8 3"/>
    </vehicle>
    <vehicle id="flow7.49" type="Car7" depart="531.31">
        <route edges="15 6 7 9"/>
    </vehicle>
    <vehicle id="flow10.12" type="Car10" depart="540.00">
        <route edges="1 5"/>
    </vehicle>
    <vehicle id="flow3.6" type="Car3" depart="540.00">
        <route edges="4 7 9"/>
    </vehicle>
    <vehicle id="flow4.36" type="Car4" depart="540.00">
        <route edges="10 8 5"/>
    </vehicle>
    <vehicle id="flow7.50" type="Car7" depart="542.15">
        <route edges="15 6 7 9"/>
    </vehicle>
    <vehicle id="flow7.51" type="Car7" depart="552.99">
        <route edges="15 6 7 9"/>
    </vehicle>
    <vehicle id="flow4.37" type="Car4" depart="555.00">
        <route edges="10 8 5"/>
    </vehicle>
    <vehicle id="flow12.10" type="Car12" depart="562.50">
        <route edges="1 7 9"/>
    </vehicle>
    <vehicle id="flow7.52" type="Car7" depart="563.84">
        <route edges="15 6 7 9"/>
    </vehicle>
    <vehicle id="flow2.8" type="Car2" depart="564.70">
        <route edges="4 5"/>
    </vehicle>
    <vehicle id="flow6.8" type="Car6" depart="564.70">
        <route edges="10 8 2"/>
    </vehicle>
    <vehicle id="flow4.38" type="Car4" depart="570.00">
        <route edges="10 8 5"/>
    </vehicle>
    <vehicle id="flow7.53" type="Car7" depart="574.68">
        <route edges="15 6 7 9"/>
    </vehicle>
    <vehicle id="flow8.4" type="Car8" depart="576.00">
        <route edges="15 6 2"/>
    </vehicle>
    <vehicle id="flow10.13" type="Car10" depart="585.00">
        <route edges="1 5"/>
    </vehicle>
    <vehicle id="flow4.39" type="Car4" depart="585.00">
        <route edges="10 8 5"/>
    </vehicle>
    <vehicle id="flow7.54" type="Car7" depart="585.52">
        <route edges="15 6 7 9"/>
    </vehicle>
    <vehicle id="flow7.55" type="Car7" depart="596.37">
        <route edges="15 6 7 9"/>
    </vehicle>
    <vehicle id="flow4.40" type="Car4" depart="600.00">
        <route edges="10 8 5"/>
    </vehicle>
    <vehicle id="flow7.56" type="Car7" depart="607.21">
        <route edges="15 6 7 9"/>
    </vehicle>
    <vehicle id="flow5.7" type="Car5" depart="614.63">
        <route edges="10 8 3"/>
    </vehicle>
    <vehicle id="flow4.41" type="Car4" depart="615.00">
        <route edges="10 8 5"/>
    </vehicle>
    <vehicle id="flow7.57" type="Car7" depart="618.05">
        <route edges="15 6 7 9"/>
    </vehicle>
    <vehicle id="flow12.11" type="Car12" depart="618.75">
        <route edges="1 7 9"/>
    </vehicle>
    <vehicle id="flow7.58" type="Car7" depart="628.89">
        <route edges="15 6 7 9"/>
    </vehicle>
    <vehicle id="flow10.14" type="Car10" depart="630.00">
        <route edges="1 5"/>
    </vehicle>
    <vehicle id="flow3.7" type="Car3" depart="630.00">
        <route edges="4 7 9"/>
    </vehicle>
    <vehicle id="flow4.42" type="Car4" depart="630.00">
        <route edges="10 8 5"/>
    </vehicle>
    <vehicle id="flow2.9" type="Car2" depart="635.29">
        <route edges="4 5"/>
    </vehicle>
    <vehicle id="flow6.9" type="Car6" depart="635.29">
        <route edges="10 8 2"/>
    </vehicle>
    <vehicle id="flow7.59" type="Car7" depart="639.74">
        <route edges="15 6 7 9"/>
    </vehicle>
    <vehicle id="flow4.43" type="Car4" depart="645.00">
        <route edges="10 8 5"/>
    </vehicle>
    <vehicle id="flow7.60" type="Car7" depart="650.58">
        <route edges="15 6 7 9"/>
    </vehicle>
    <vehicle id="flow1.4" type="Car1" depart="654.54">
        <route edges="4 2"/>
    </vehicle>
    <vehicle id="flow4.44" type="Car4" depart="660.00">
        <route edges="10 8 5"/>
    </vehicle>
    <vehicle id="flow7.61" type="Car7" depart="661.42">
        <route edges="15 6 7 9"/>
    </vehicle>
    <vehicle id="flow7.62" type="Car7" depart="672.27">
        <route edges="15 6 7 9"/>
    </vehicle>
    <vehicle id="flow10.15" type="Car10" depart="675.00">
        <route edges="1 5"/>
    </vehicle>
    <vehicle id="flow11.3" type="Car11" depart="675.00">
        <route edges="1 3"/>
    </vehicle>
    <vehicle id="flow12.12" type="Car12" depart="675.00">
        <route edges="1 7 9"/>
    </vehicle>
    <vehicle id="flow4.45" type="Car4" depart="675.00">
        <route edges="10 8 5"/>
    </vehicle>
    <vehicle id="flow7.63" type="Car7" depart="683.11">
        <route edges="15 6 7 9"/>
    </vehicle>
    <vehicle id="flow4.46" type="Car4" depart="690.00">
        <route edges="10 8 5"/>
    </vehicle>
    <vehicle id="flow7.64" type="Car7" depart="693.95">
        <route edges="15 6 7 9"/>
    </vehicle>
    <vehicle id="flow5.8" type="Car5" depart="702.43">
        <route edges="10 8 3"/>
    </vehicle>
    <vehicle id="flow7.65" type="Car7" depart="704.79">
        <route edges="15 6 7 9"/>
    </vehicle>
    <vehicle id="flow4.47" type="Car4" depart="705.00">
        <route edges="10 8 5"/>
    </vehicle>
    <vehicle id="flow2.10" type="Car2" depart="705.88">
        <route edges="4 5"/>
    </vehicle>
    <vehicle id="flow6.10" type="Car6" depart="705.88">
        <route edges="10 8 2"/>
    </vehicle>
    <vehicle id="flow7.66" type="Car7" depart="715.64">
        <route edges="15 6 7 9"/>
    </vehicle>
    <vehicle id="flow10.16" type="Car10" depart="720.00">
        <route edges="1 5"/>
    </vehicle>
    <vehicle id="flow3.8" type="Car3" depart="720.00">
        <route edges="4 7 9"/>
    </vehicle>
    <vehicle id="flow4.48" type="Car4" depart="720.00">
        <route edges="10 8 5"/>
    </vehicle>
    <vehicle id="flow8.5" type="Car8" depart="720.00">
        <route edges="15 6 2"/>
    </vehicle>
    <vehicle id="flow9.3" type="Car9" depart="720.00">
        <route edges="15 6 3"/>
    </vehicle>
    <vehicle id="flow7.67" type="Car7" depart="726.48">
        <route edges="15 6 7 9"/>
    </vehicle>
    <vehicle id="flow12.13" type="Car12" depart="731.25">
        <route edges="1 7 9"/>
    </vehicle>
    <vehicle id="flow4.49" type="Car4" depart="735.00">
        <route edges="10 8 5"/>
    </vehicle>
    <vehicle id="flow7.68" type="Car7" depart="737.32">
        <route edges="15 6 7 9"/>
    </vehicle>
    <vehicle id="flow7.69" type="Car7" depart="748.17">
        <route edges="15 6 7 9"/>
    </vehicle>
    <vehicle id="flow4.50" type="Car4" depart="750.00">
        <route edges="10 8 5"/>
    </vehicle>
    <vehicle id="flow7.70" type="Car7" depart="759.01">
        <route edges="15 6 7 9"/>
    </vehicle>
    <vehicle id="flow10.17" type="Car10" depart="765.00">
        <route edges="1 5"/>
    </vehicle>
    <vehicle id="flow4.51" type="Car4" depart="765.00">
        <route edges="10 8 5"/>
    </vehicle>
    <vehicle id="flow7.71" type="Car7" depart="769.85">
        <route edges="15 6 7 9"/>
    </vehicle>
    <vehicle id="flow2.11" type="Car2" depart="776.47">
        <route edges="4 5"/>
    </vehicle>
    <vehicle id="flow6.11" type="Car6" depart="776.47">
        <route edges="10 8 2"/>
    </vehicle>
    <vehicle id="flow4.52" type="Car4" depart="780.00">
        <route edges="10 8 5"/>
    </vehicle>
    <vehicle id="flow7.72" type="Car7" depart="780.70">
        <route edges="15 6 7 9"/>
    </vehicle>
    <vehicle id="flow12.14" type="Car12" depart="787.50">
        <route edges="1 7 9"/>
    </vehicle>
    <vehicle id="flow5.9" type="Car5" depart="790.24">
        <route edges="10 8 3"/>
    </vehicle>
    <vehicle id="flow7.73" type="Car7" depart="791.54">
        <route edges="15 6 7 9"/>
    </vehicle>
    <vehicle id="flow4.53" type="Car4" depart="795.00">
        <route edges="10 8 5"/>
    </vehicle>
    <vehicle id="flow7.74" type="Car7" depart="802.38">
        <route edges="15 6 7 9"/>
    </vehicle>
    <vehicle id="flow10.18" type="Car10" depart="810.00">
        <route edges="1 5"/>
    </vehicle>
    <vehicle id="flow3.9" type="Car3" depart="810.00">
        <route edges="4 7 9"/>
    </vehicle>
    <vehicle id="flow4.54" type="Car4" depart="810.00">
        <route edges="10 8 5"/>
    </vehicle>
    <vehicle id="flow7.75" type="Car7" depart="813.23">
        <route edges="15 6 7 9"/>
    </vehicle>
    <vehicle id="flow1.5" type="Car1" depart="818.18">
        <route edges="4 2"/>
    </vehicle>
    <vehicle id="flow7.76" type="Car7" depart="824.07">
        <route edges="15 6 7 9"/>
    </vehicle>
    <vehicle id="flow4.55" type="Car4" depart="825.00">
        <route edges="10 8 5"/>
    </vehicle>
    <vehicle id="flow7.77" type="Car7" depart="834.91">
        <route edges="15 6 7 9"/>
    </vehicle>
    <vehicle id="flow4.56" type="Car4" depart="840.00">
        <route edges="10 8 5"/>
    </vehicle>
    <vehicle id="flow12.15" type="Car12" depart="843.75">
        <route edges="1 7 9"/>
    </vehicle>
    <vehicle id="flow7.78" type="Car7" depart="845.75">
        <route edges="15 6 7 9"/>
    </vehicle>
    <vehicle id="flow2.12" type="Car2" depart="847.06">
        <route edges="4 5"/>
    </vehicle>
    <vehicle id="flow6.12" type="Car6" depart="847.06">
        <route edges="10 8 2"/>
    </vehicle>
    <vehicle id="flow10.19" type="Car10" depart="855.00">
        <route edges="1 5"/>
    </vehicle>
    <vehicle id="flow4.57" type="Car4" depart="855.00">
        <route edges="10 8 5"/>
    </vehicle>
    <vehicle id="flow7.79" type="Car7" depart="856.60">
        <route edges="15 6 7 9"/>
    </vehicle>
    <vehicle id="flow8.6" type="Car8" depart="864.00">
        <route edges="15 6 2"/>
    </vehicle>
    <vehicle id="flow7.80" type="Car7" depart="867.44">
        <route edges="15 6 7 9"/>
    </vehicle>
    <vehicle id="flow4.58" type="Car4" depart="870.00">
        <route edges="10 8 5"/>
    </vehicle>
    <vehicle id="flow5.10" type="Car5" depart="878.04">
        <route edges="10 8 3"/>
    </vehicle>
    <vehicle id="flow7.81" type="Car7" depart="878.28">
        <route edges="15 6 7 9"/>
    </vehicle>
    <vehicle id="flow4.59" type="Car4" depart="885.00">
        <route edges="10 8 5"/>
    </vehicle>
    <vehicle id="flow7.82" type="Car7" depart="889.13">
        <route edges="15 6 7 9"/>
    </vehicle>
    <vehicle id="flow7.83" type="Car7" depart="899.97">
        <route edges="15 6 7 9"/>
    </vehicle>
    <vehicle id="flow10.20" type="Car10" depart="900.00">
        <route edges="1 5"/>
    </vehicle>
    <vehicle id="flow11.4" type="Car11" depart="900.00">
        <route edges="1 3"/>
    </vehicle>
    <vehicle id="flow12.16" type="Car12" depart="900.00">
        <route edges="1 7 9"/>
    </vehicle>
    <vehicle id="flow3.10" type="Car3" depart="900.00">
        <route edges="4 7 9"/>
    </vehicle>
    <vehicle id="flow4.60" type="Car4" depart="900.00">
        <route edges="10 8 5"/>
    </vehicle>
    <vehicle id="flow7.84" type="Car7" depart="910.81">
        <route edges="15 6 7 9"/>
    </vehicle>
    <vehicle id="flow4.61" type="Car4" depart="915.00">
        <route edges="10 8 5"/>
    </vehicle>
    <vehicle id="flow2.13" type="Car2" depart="917.64">
        <route edges="4 5"/>
    </vehicle>
    <vehicle id="flow6.13" type="Car6" depart="917.64">
        <route edges="10 8 2"/>
    </vehicle>
    <vehicle id="flow7.85" type="Car7" depart="921.65">
        <route edges="15 6 7 9"/>
    </vehicle>
    <vehicle id="flow4.62" type="Car4" depart="930.00">
        <route edges="10 8 5"/>
    </vehicle>
    <vehicle id="flow7.86" type="Car7" depart="932.50">
        <route edges="15 6 7 9"/>
    </vehicle>
    <vehicle id="flow7.87" type="Car7" depart="943.34">
        <route edges="15 6 7 9"/>
    </vehicle>
    <vehicle id="flow10.21" type="Car10" depart="945.00">
        <route edges="1 5"/>
    </vehicle>
    <vehicle id="flow4.63" type="Car4" depart="945.00">
        <route edges="10 8 5"/>
    </vehicle>
    <vehicle id="flow7.88" type="Car7" depart="954.18">
        <route edges="15 6 7 9"/>
    </vehicle>
    <vehicle id="flow12.17" type="Car12" depart="956.25">
        <route edges="1 7 9"/>
    </vehicle>
    <vehicle id="flow4.64" type="Car4" depart="960.00">
        <route edges="10 8 5"/>
    </vehicle>
    <vehicle id="flow9.4" type="Car9" depart="960.00">
        <route edges="15 6 3"/>
    </vehicle>
    <vehicle id="flow7.89" type="Car7" depart="965.03">
        <route edges="15 6 7 9"/>
    </vehicle>
    <vehicle id="flow5.11" type="Car5" depart="965.84">
        <route edges="10 8 3"/>
    </vehicle>
    <vehicle id="flow4.65" type="Car4" depart="975.00">
        <route edges="10 8 5"/>
    </vehicle>
    <vehicle id="flow7.90" type="Car7" depart="975.87">
        <route edges="15 6 7 9"/>
    </vehicle>
    <vehicle id="flow1.6" type="Car1" depart="981.82">
        <route edges="4 2"/>
    </vehicle>
    <vehicle id="flow7.91" type="Car7" depart="986.71">
        <route edges="15 6 7 9"/>
    </vehicle>